Version 4
SHEET 1 3868 1556
WIRE 480 -48 0 -48
WIRE 896 -48 480 -48
WIRE 1376 -48 896 -48
WIRE 2064 -48 1376 -48
WIRE 2480 -48 2064 -48
WIRE 2480 -16 2480 -48
WIRE 2416 32 2352 32
WIRE 0 96 0 -48
WIRE 464 144 416 144
WIRE 1344 144 1312 144
WIRE 1472 144 1424 144
WIRE 864 160 848 160
WIRE 976 160 944 160
WIRE 2752 160 2080 160
WIRE 208 176 144 176
WIRE 272 176 208 176
WIRE 336 176 336 144
WIRE 2480 176 2480 80
WIRE 480 224 480 -48
WIRE 896 224 896 -48
WIRE 1376 224 1376 -48
WIRE 2064 224 2064 -48
WIRE 0 240 0 176
WIRE 0 240 -96 240
WIRE 144 240 144 176
WIRE 416 240 416 144
WIRE 448 240 416 240
WIRE 768 240 736 240
WIRE 848 240 848 160
WIRE 864 240 848 240
WIRE 1200 240 1184 240
WIRE 1312 240 1312 144
WIRE 1312 240 1280 240
WIRE 1344 240 1312 240
WIRE 2000 240 2000 160
WIRE 2032 240 2000 240
WIRE 544 256 544 144
WIRE 544 256 512 256
WIRE 688 256 544 256
WIRE 736 256 736 240
WIRE 736 256 688 256
WIRE 976 256 976 160
WIRE 976 256 928 256
WIRE 1056 256 976 256
WIRE 1184 256 1184 240
WIRE 1184 256 1056 256
WIRE 1472 256 1472 144
WIRE 1472 256 1408 256
WIRE 1568 256 1472 256
WIRE 1600 256 1568 256
WIRE 1680 256 1664 256
WIRE 1728 256 1680 256
WIRE 1920 256 1920 240
WIRE 1920 256 1728 256
WIRE 2352 256 2352 32
WIRE 2352 256 2096 256
WIRE 2480 256 2480 240
WIRE 2752 256 2752 160
WIRE 2752 256 2480 256
WIRE 2944 256 2752 256
WIRE 272 272 272 176
WIRE 448 272 272 272
WIRE 864 272 832 272
WIRE 1344 272 1312 272
WIRE 2032 272 2000 272
WIRE 2480 272 2480 256
WIRE 0 304 0 240
WIRE 1728 304 1728 256
WIRE 2000 304 2000 272
WIRE -96 320 -96 240
WIRE 832 320 832 272
WIRE 1312 320 1312 272
WIRE 1728 416 1728 384
WIRE 2752 416 2752 256
WIRE 2480 448 2480 336
WIRE 2352 496 2352 256
WIRE 2416 496 2352 496
WIRE 2752 544 2752 496
WIRE 0 576 0 384
WIRE 480 576 480 288
WIRE 480 576 0 576
WIRE 896 576 896 288
WIRE 896 576 480 576
WIRE 1376 576 1376 288
WIRE 1376 576 896 576
WIRE 2064 576 2064 288
WIRE 2064 576 1376 576
WIRE 2480 576 2480 544
WIRE 2480 576 2064 576
FLAG -96 320 0
FLAG 144 320 0
FLAG 208 176 Vi
FLAG 688 256 V1st
FLAG 336 176 0
FLAG 832 320 0
FLAG 1056 256 V2nd
FLAG 1312 320 0
FLAG 1568 256 V3rd
FLAG 1728 416 0
FLAG 1680 256 V1C
FLAG 2752 544 0
FLAG 0 -48 +V
FLAG 0 576 -V
FLAG 2000 304 0
FLAG 2944 256 Vpoweramp
SYMBOL voltage 0 80 R0
WINDOW 123 0 0 Left 0
WINDOW 39 24 124 Left 2
SYMATTR SpiceLine Rser=0
SYMATTR InstName V1
SYMATTR Value 12V
SYMBOL voltage 0 288 R0
WINDOW 123 0 0 Left 0
WINDOW 39 24 124 Left 2
SYMATTR SpiceLine Rser=0
SYMATTR InstName V2
SYMATTR Value 12V
SYMBOL Misc\\signal 144 224 R0
WINDOW 123 0 0 Left 0
WINDOW 39 0 0 Left 0
SYMATTR InstName V3
SYMATTR Value SINE(0 .015 100)
SYMBOL res 560 128 R90
WINDOW 0 0 56 Invisible 2
WINDOW 3 32 56 VTop 2
SYMATTR InstName R1
SYMATTR Value 62K
SYMATTR SpiceLine pwr=5
SYMBOL res 432 128 R90
WINDOW 0 0 56 Invisible 2
WINDOW 3 32 56 VTop 2
SYMATTR InstName R2
SYMATTR Value 6.2K
SYMATTR SpiceLine tol=5
SYMBOL res 864 224 R90
WINDOW 0 0 56 Invisible 2
WINDOW 3 32 56 VTop 2
SYMATTR InstName R3
SYMATTR Value 8.2K
SYMATTR SpiceLine tol=5
SYMBOL res 960 144 R90
WINDOW 0 0 56 Invisible 2
WINDOW 3 32 56 VTop 2
SYMATTR InstName R4
SYMATTR Value 56K
SYMATTR SpiceLine tol=5
SYMBOL res 1440 128 R90
WINDOW 0 0 56 Invisible 2
WINDOW 3 32 56 VTop 2
SYMATTR InstName R5
SYMATTR Value 56K
SYMATTR SpiceLine tol=5
SYMBOL res 1296 224 R90
WINDOW 0 0 56 Invisible 2
WINDOW 3 32 56 VTop 2
SYMATTR InstName R6
SYMATTR Value 8.2K
SYMATTR SpiceLine tol=5
SYMBOL Opamps\\LM741 480 192 R0
SYMATTR InstName U1
SYMBOL Opamps\\LM741 896 192 R0
SYMATTR InstName U2
SYMBOL Opamps\\LM741 1376 192 R0
SYMATTR InstName U3
SYMBOL cap 1664 240 R90
WINDOW 0 0 32 VBottom 2
WINDOW 3 32 32 VTop 2
SYMATTR InstName C1
SYMATTR Value 820nF
SYMBOL res 1712 288 R0
SYMATTR InstName R7
SYMATTR Value 10k
SYMBOL res 2736 400 R0
SYMATTR InstName R9
SYMATTR Value 8
SYMBOL res 2016 224 R90
WINDOW 0 0 56 VBottom 2
WINDOW 3 32 56 VTop 2
SYMATTR InstName R11
SYMATTR Value 10K
SYMBOL res 2096 144 R90
WINDOW 0 0 56 VBottom 2
WINDOW 3 32 56 VTop 2
SYMATTR InstName R12
SYMATTR Value 10K
SYMBOL Opamps\\LM741 2064 192 R0
SYMATTR InstName U4
SYMBOL npn 2416 -16 R0
SYMATTR InstName Q1
SYMBOL pnp 2416 544 M180
SYMATTR InstName Q2
SYMBOL diode 2464 176 R0
SYMATTR InstName D1
SYMBOL diode 2464 272 R0
SYMATTR InstName D2
TEXT -120 584 Left 2 !.tran .1
TEXT -32 704 Left 2 !.include /lib/sub/MJE15034.LIB
TEXT 848 -96 Left 2 ;Preamp
TEXT 1728 -96 Left 2 ;Filters
TEXT 2352 -104 Left 2 ;Poweramp
