Version 4
SHEET 1 3868 1556
WIRE 160 -128 0 -128
WIRE 368 -128 160 -128
WIRE 896 -128 368 -128
WIRE 1376 -128 896 -128
WIRE 2064 -128 1376 -128
WIRE 2416 -128 2064 -128
WIRE 2528 -128 2416 -128
WIRE 2640 -128 2528 -128
WIRE 2528 -32 2528 -128
WIRE 2416 16 2416 -48
WIRE 2464 16 2416 16
WIRE 2416 48 2416 16
WIRE 2640 64 2640 -128
WIRE 0 96 0 -128
WIRE 2528 112 2528 64
WIRE 2576 112 2528 112
WIRE 1344 144 1312 144
WIRE 1472 144 1424 144
WIRE 2416 144 2416 112
WIRE 864 160 848 160
WIRE 976 160 944 160
WIRE 2192 160 2080 160
WIRE 208 176 144 176
WIRE 272 176 208 176
WIRE 896 224 896 -128
WIRE 1376 224 1376 -128
WIRE 2064 224 2064 -128
WIRE 0 240 0 176
WIRE 0 240 -96 240
WIRE 144 240 144 176
WIRE 272 240 272 176
WIRE 448 240 272 240
WIRE 768 240 736 240
WIRE 848 240 848 160
WIRE 864 240 848 240
WIRE 1200 240 1184 240
WIRE 1312 240 1312 144
WIRE 1312 240 1280 240
WIRE 1344 240 1312 240
WIRE 2000 240 2000 160
WIRE 2032 240 2000 240
WIRE 608 256 512 256
WIRE 688 256 608 256
WIRE 736 256 736 240
WIRE 736 256 688 256
WIRE 976 256 976 160
WIRE 976 256 928 256
WIRE 1056 256 976 256
WIRE 1184 256 1184 240
WIRE 1184 256 1056 256
WIRE 1472 256 1472 144
WIRE 1472 256 1408 256
WIRE 1568 256 1472 256
WIRE 1600 256 1568 256
WIRE 1680 256 1664 256
WIRE 1728 256 1680 256
WIRE 1920 256 1920 240
WIRE 1920 256 1728 256
WIRE 2192 256 2192 160
WIRE 2192 256 2096 256
WIRE 2416 256 2416 208
WIRE 2416 256 2192 256
WIRE 2640 256 2640 160
WIRE 2800 256 2640 256
WIRE 448 272 416 272
WIRE 864 272 832 272
WIRE 1344 272 1312 272
WIRE 2032 272 2000 272
WIRE 2416 272 2416 256
WIRE 0 304 0 240
WIRE 608 304 608 256
WIRE 1728 304 1728 256
WIRE 2000 304 2000 272
WIRE -96 320 -96 240
WIRE 832 320 832 272
WIRE 1312 320 1312 272
WIRE 2800 320 2800 256
WIRE 2640 352 2640 256
WIRE 2416 368 2416 336
WIRE 416 400 416 272
WIRE 608 400 608 384
WIRE 608 400 416 400
WIRE 2576 400 2528 400
WIRE 608 416 608 400
WIRE 1728 416 1728 384
WIRE 2528 448 2528 400
WIRE 2416 496 2416 432
WIRE 2464 496 2416 496
WIRE 2416 576 2416 496
WIRE 0 656 0 384
WIRE 144 656 0 656
WIRE 384 656 144 656
WIRE 896 656 896 288
WIRE 896 656 384 656
WIRE 1376 656 1376 288
WIRE 1376 656 896 656
WIRE 2064 656 2064 288
WIRE 2064 656 1376 656
WIRE 2416 656 2064 656
WIRE 2528 656 2528 544
WIRE 2528 656 2416 656
WIRE 2640 656 2640 448
WIRE 2640 656 2528 656
FLAG -96 320 0
FLAG 144 320 0
FLAG 208 176 Vi
FLAG 688 256 V1st
FLAG 832 320 0
FLAG 1056 256 V2nd
FLAG 1312 320 0
FLAG 1568 256 V3rd
FLAG 1728 416 0
FLAG 1680 256 V1C
FLAG 0 -128 +V
FLAG 0 656 -V
FLAG 2000 304 0
FLAG 160 -64 0
FLAG 368 -64 0
FLAG 144 592 0
FLAG 384 592 0
FLAG 608 496 0
FLAG 480 288 +V
FLAG 480 224 -V
FLAG 2800 400 0
SYMBOL voltage 0 80 R0
WINDOW 123 0 0 Left 0
WINDOW 39 24 124 Left 2
SYMATTR SpiceLine Rser=8
SYMATTR InstName V1
SYMATTR Value 15V
SYMBOL voltage 0 288 R0
WINDOW 123 0 0 Left 0
WINDOW 39 24 124 Left 2
SYMATTR SpiceLine Rser=8
SYMATTR InstName V2
SYMATTR Value 15V
SYMBOL Misc\\signal 144 224 R0
WINDOW 123 0 0 Left 0
WINDOW 39 0 0 Left 0
SYMATTR InstName V3
SYMATTR Value SINE(0 .07 20000)
SYMBOL res 864 224 R90
WINDOW 0 0 56 Invisible 2
WINDOW 3 32 56 VTop 2
SYMATTR InstName R3
SYMATTR Value 8.6K
SYMATTR SpiceLine tol=5
SYMBOL res 960 144 R90
WINDOW 0 0 56 Invisible 2
WINDOW 3 32 56 VTop 2
SYMATTR InstName R4
SYMATTR Value 56K
SYMATTR SpiceLine tol=5
SYMBOL res 1440 128 R90
WINDOW 0 0 56 Invisible 2
WINDOW 3 32 56 VTop 2
SYMATTR InstName R5
SYMATTR Value 56K
SYMATTR SpiceLine tol=5
SYMBOL res 1296 224 R90
WINDOW 0 0 56 Invisible 2
WINDOW 3 32 56 VTop 2
SYMATTR InstName R6
SYMATTR Value 8.6K
SYMATTR SpiceLine tol=5
SYMBOL cap 1664 240 R90
WINDOW 0 0 32 VBottom 2
WINDOW 3 32 32 VTop 2
SYMATTR InstName C1
SYMATTR Value 820nF
SYMBOL res 1712 288 R0
SYMATTR InstName R7
SYMATTR Value 10k
SYMBOL res 2016 224 R90
WINDOW 0 0 56 VBottom 2
WINDOW 3 32 56 VTop 2
SYMATTR InstName R11
SYMATTR Value 10K
SYMBOL res 2096 144 R90
WINDOW 0 0 56 VBottom 2
WINDOW 3 32 56 VTop 2
SYMATTR InstName R12
SYMATTR Value 10K
SYMBOL polcap 144 -128 R0
WINDOW 3 24 56 Left 2
SYMATTR Value 100µF
SYMATTR InstName C2
SYMATTR Description Capacitor
SYMATTR Type cap
SYMATTR SpiceLine V=10 Irms=0 Rser=4 Lser=0
SYMBOL cap 352 -128 R0
SYMATTR InstName C5
SYMATTR Value 500nF
SYMBOL polcap 128 592 R0
WINDOW 3 24 56 Left 2
SYMATTR Value 100µF
SYMATTR InstName C3
SYMATTR Description Capacitor
SYMATTR Type cap
SYMATTR SpiceLine V=10 Irms=0 Rser=4 Lser=0
SYMBOL cap 368 592 R0
SYMATTR InstName C4
SYMATTR Value 500nF
SYMBOL Opamps\\UniversalOpamp2 896 256 R0
SYMATTR InstName U7
SYMBOL Opamps\\UniversalOpamp2 1376 256 R0
SYMATTR InstName U8
SYMBOL Opamps\\opamp2 2064 192 R0
SYMATTR InstName U5
SYMATTR Value LF411/MC
SYMBOL Opamps\\opamp2 480 320 M180
SYMATTR InstName U1
SYMATTR Value LF411/MC
SYMBOL res 592 288 R0
SYMATTR InstName R1
SYMATTR Value 6.2K
SYMBOL res 592 400 R0
SYMATTR InstName R2
SYMATTR Value 62K
SYMBOL npn 2464 -32 R0
SYMATTR InstName Q1
SYMATTR Value qmje15034
SYMBOL pnp 2464 544 M180
SYMATTR InstName Q3
SYMATTR Value qmje15035
SYMBOL res 2784 304 R0
SYMATTR InstName R8
SYMATTR Value 8
SYMBOL res 2400 -144 R0
SYMATTR InstName R9
SYMATTR Value 533
SYMBOL res 2400 560 R0
SYMATTR InstName R10
SYMATTR Value 533
SYMBOL diode 2400 272 R0
SYMATTR InstName D1
SYMBOL diode 2400 368 R0
SYMATTR InstName D2
SYMBOL diode 2400 48 R0
SYMATTR InstName D3
SYMBOL diode 2400 144 R0
SYMATTR InstName D4
SYMBOL npn 2576 64 R0
SYMATTR InstName Q2
SYMATTR Value qmje15034
SYMBOL pnp 2576 448 M180
SYMATTR InstName Q4
SYMATTR Value qmje15035
TEXT -120 664 Left 2 !.tran .0005
TEXT 848 -176 Left 2 ;Preamp
TEXT 1728 -176 Left 2 ;Filters
TEXT 0 768 Left 2 !.inc MJE15034.LIB\n.inc MJE15035.LIB
TEXT 264 784 Left 2 !.inc LF411.LIB
