Version 4
SHEET 1 880 680
WIRE 384 208 272 208
WIRE 560 208 448 208
WIRE 688 208 560 208
WIRE 560 240 560 208
FLAG 560 320 0
FLAG 688 208 Vout
FLAG 272 208 Vin
FLAG 160 576 0
FLAG 160 496 Vin
SYMBOL cap 448 192 R90
WINDOW 0 0 32 VBottom 2
WINDOW 3 32 32 VTop 2
SYMATTR InstName C1
SYMATTR Value 820nF
SYMBOL res 544 224 R0
SYMATTR InstName R1
SYMATTR Value 10K
SYMBOL Misc\\signal 160 480 R0
WINDOW 123 0 0 Left 0
WINDOW 39 0 0 Left 0
SYMATTR InstName V1
SYMATTR Value SINE(1V 1 20K)
TEXT 126 604 Left 2 !.tran .0005
