Version 4
SHEET 1 3272 732
WIRE 720 -272 208 -272
WIRE 480 -192 448 -192
WIRE 2272 -192 2272 -208
WIRE 2400 -192 2272 -192
WIRE 2272 -176 2272 -192
WIRE 720 -160 720 -272
WIRE 800 -160 720 -160
WIRE 2112 -144 2080 -144
WIRE 2208 -144 2192 -144
WIRE 208 -96 208 -272
WIRE 208 -96 112 -96
WIRE 304 -96 208 -96
WIRE 112 -80 112 -96
WIRE 304 -80 304 -96
WIRE 448 -80 448 -192
WIRE 448 -80 384 -80
WIRE 464 -80 448 -80
WIRE 2208 -80 2208 -144
WIRE 2464 -80 2464 -144
WIRE 2464 -80 2208 -80
WIRE 560 -64 560 -192
WIRE 560 -64 528 -64
WIRE 720 -64 560 -64
WIRE 800 -64 720 -64
WIRE 880 -64 880 -160
WIRE 1984 -64 880 -64
WIRE 2080 -64 2080 -144
WIRE 2080 -64 2064 -64
WIRE 2096 -64 2080 -64
WIRE 464 -48 448 -48
WIRE 1984 -48 1984 -64
WIRE 1984 -48 1776 -48
WIRE 2272 -48 2272 -112
WIRE 2272 -48 2160 -48
WIRE 2464 -48 2464 -80
WIRE 2688 -48 2464 -48
WIRE 2096 -32 2080 -32
WIRE 448 0 448 -48
WIRE 2272 16 2272 -48
WIRE 1776 32 1776 -48
WIRE 2080 32 2080 -32
WIRE 2464 64 2464 -48
WIRE 1024 96 960 96
WIRE 1120 96 1104 96
WIRE 2272 112 2272 80
WIRE 2400 112 2272 112
WIRE 2272 128 2272 112
WIRE 1328 144 1264 144
WIRE 1424 144 1408 144
WIRE 864 240 848 240
WIRE 960 240 960 96
WIRE 960 240 944 240
WIRE 992 240 960 240
WIRE 1168 240 1152 240
WIRE 1264 240 1264 144
WIRE 1264 240 1248 240
WIRE 1280 240 1264 240
WIRE 848 256 848 240
WIRE 848 256 544 256
WIRE 1120 256 1120 96
WIRE 1120 256 1056 256
WIRE 1152 256 1152 240
WIRE 1152 256 1120 256
WIRE 1424 256 1424 144
WIRE 1424 256 1344 256
WIRE 1648 256 1424 256
WIRE 1776 256 1776 32
WIRE 1776 256 1712 256
WIRE 992 272 960 272
WIRE 1280 272 1264 272
WIRE 544 288 544 256
WIRE 960 336 960 272
WIRE 1264 336 1264 272
WIRE 1776 400 1776 256
WIRE 64 528 64 480
WIRE 64 528 -32 528
WIRE -32 560 -32 528
WIRE 64 560 64 528
FLAG 448 0 0
FLAG -32 560 0
FLAG 64 400 V+
FLAG 496 -96 V+
FLAG 64 640 V-
FLAG 496 -32 V-
FLAG 112 0 0
FLAG 112 -96 Vnoise
FLAG -656 672 0
FLAG -656 592 Vmusic
FLAG 720 -64 Vcancel
FLAG 960 336 0
FLAG 1024 224 V+
FLAG 1024 288 V-
FLAG 2688 -48 Vout
FLAG 2272 -288 V+
FLAG 2272 208 V-
FLAG 2464 -240 V+
FLAG 2464 160 V-
FLAG 2128 -80 V+
FLAG 2128 -16 V-
FLAG 2080 32 0
FLAG 1312 224 V+
FLAG 1312 288 V-
FLAG 1264 336 0
FLAG 1776 480 0
FLAG 1776 32 Vnonoise
FLAG 544 368 0
SYMBOL Misc\\signal 112 -96 R0
WINDOW 123 0 0 Left 0
WINDOW 39 0 0 Left 0
SYMATTR InstName V1
SYMATTR Value wavefile="whitenoise.wav" chan=0
SYMBOL voltage 64 384 R0
WINDOW 123 0 0 Left 0
WINDOW 39 24 124 Left 2
SYMATTR SpiceLine Rser=8
SYMATTR InstName V2
SYMATTR Value 15
SYMBOL voltage 64 544 R0
WINDOW 123 0 0 Left 0
WINDOW 39 24 124 Left 2
SYMATTR SpiceLine Rser=8
SYMATTR InstName V3
SYMATTR Value 15
SYMBOL res 400 -96 R90
WINDOW 0 0 56 VBottom 2
WINDOW 3 32 56 VTop 2
SYMATTR InstName R1
SYMATTR Value 10K
SYMBOL res 576 -208 R90
WINDOW 0 0 56 VBottom 2
WINDOW 3 32 56 VTop 2
SYMATTR InstName R2
SYMATTR Value 10K
SYMBOL res 896 -80 R90
WINDOW 0 0 56 VBottom 2
WINDOW 3 32 56 VTop 2
SYMATTR InstName R3
SYMATTR Value 10K
SYMBOL res 896 -176 R90
WINDOW 0 0 56 VBottom 2
WINDOW 3 32 56 VTop 2
SYMATTR InstName R4
SYMATTR Value 10K
SYMBOL Misc\\signal -656 576 R0
WINDOW 123 0 0 Left 0
WINDOW 39 0 0 Left 0
SYMATTR InstName V4
SYMATTR Value wavefile="bluesky.wav" chan=0
SYMBOL Opamps\\opamp2 496 -128 R0
SYMATTR InstName U2
SYMATTR Value LF411/MC
SYMBOL Opamps\\opamp2 1024 192 R0
SYMATTR InstName U3
SYMATTR Value LF411/MC
SYMBOL res 960 224 R90
WINDOW 0 0 56 VBottom 2
WINDOW 3 32 56 VTop 2
SYMATTR InstName R7
SYMATTR Value 6.2K
SYMBOL res 1120 80 R90
WINDOW 0 0 56 VBottom 2
WINDOW 3 32 56 VTop 2
SYMATTR InstName R8
SYMATTR Value 62K
SYMBOL res 2256 -304 R0
SYMATTR InstName R9
SYMATTR Value 533
SYMBOL res 2256 112 R0
SYMATTR InstName R10
SYMATTR Value 533
SYMBOL diode 2256 -176 R0
SYMATTR InstName D1
SYMBOL diode 2256 16 R0
SYMATTR InstName D2
SYMBOL npn 2400 -240 R0
SYMATTR InstName Q1
SYMATTR Value qmje15034
SYMBOL pnp 2400 160 M180
SYMATTR InstName qmje15035
SYMBOL Opamps\\opamp2 2128 -112 R0
SYMATTR InstName U4
SYMATTR Value LF411/MC
SYMBOL res 2080 -80 R90
WINDOW 0 0 56 VBottom 2
WINDOW 3 32 56 VTop 2
SYMATTR InstName R11
SYMATTR Value 10K
SYMBOL res 2208 -160 R90
WINDOW 0 0 56 VBottom 2
WINDOW 3 32 56 VTop 2
SYMATTR InstName R12
SYMATTR Value 10K
SYMBOL Opamps\\opamp2 1312 192 R0
SYMATTR InstName U5
SYMATTR Value LF411/MC
SYMBOL res 1264 224 R90
WINDOW 0 0 56 VBottom 2
WINDOW 3 32 56 VTop 2
SYMATTR InstName R13
SYMATTR Value 12K
SYMBOL res 1424 128 R90
WINDOW 0 0 56 VBottom 2
WINDOW 3 32 56 VTop 2
SYMATTR InstName R14
SYMATTR Value 52K
SYMBOL cap 1712 240 R90
WINDOW 0 0 32 VBottom 2
WINDOW 3 32 32 VTop 2
SYMATTR InstName C1
SYMATTR Value 820nF
SYMBOL res 1760 384 R0
SYMATTR InstName R15
SYMATTR Value 10K
SYMBOL Misc\\signal 544 272 R0
WINDOW 123 0 0 Left 0
WINDOW 39 0 0 Left 0
SYMATTR InstName V5
SYMATTR Value wavefile="bluesky.wav" chan=0
TEXT -56 712 Left 2 !.tran 3
TEXT 416 616 Left 2 !.inc LF411.LIB
TEXT 1072 408 Left 2 !.wave "noiseOutput.wav" 16 44100 Vout
TEXT 408 680 Left 2 !.inc MJE15034.LIB\n.inc MJE15035.LIB
