Version 4
SHEET 1 1736 732
WIRE 720 -272 208 -272
WIRE 480 -192 448 -192
WIRE 1088 -176 1024 -176
WIRE 720 -160 720 -272
WIRE 800 -160 720 -160
WIRE 208 -96 208 -272
WIRE 208 -96 112 -96
WIRE 304 -96 208 -96
WIRE 112 -80 112 -96
WIRE 304 -80 304 -96
WIRE 448 -80 448 -192
WIRE 448 -80 384 -80
WIRE 464 -80 448 -80
WIRE 880 -80 880 -160
WIRE 1024 -80 1024 -176
WIRE 1024 -80 880 -80
WIRE 1072 -80 1024 -80
WIRE 560 -64 560 -192
WIRE 560 -64 528 -64
WIRE 720 -64 560 -64
WIRE 800 -64 720 -64
WIRE 880 -64 880 -80
WIRE 1168 -64 1168 -176
WIRE 1168 -64 1136 -64
WIRE 1312 -64 1168 -64
WIRE 1664 -64 1440 -64
WIRE 464 -48 448 -48
WIRE 1072 -48 1056 -48
WIRE 448 0 448 -48
WIRE 1056 16 1056 -48
WIRE 800 32 720 32
WIRE 880 32 880 -64
WIRE 720 112 720 32
WIRE 64 528 64 480
WIRE 64 528 -32 528
WIRE -32 560 -32 528
WIRE 64 560 64 528
FLAG 448 0 0
FLAG -32 560 0
FLAG 64 400 V+
FLAG 496 -96 V+
FLAG 64 640 V-
FLAG 496 -32 V-
FLAG 112 0 0
FLAG 112 -96 Vnoise
FLAG 1104 -96 V+
FLAG 1104 -32 V-
FLAG 1056 16 0
FLAG 720 112 Vmusic
FLAG -656 672 0
FLAG -656 592 Vmusic
FLAG 720 -64 Vcancel
FLAG 1664 -64 Vout
FLAG 1376 -112 V+
FLAG 1376 -16 V-
SYMBOL Misc\\signal 112 -96 R0
WINDOW 123 0 0 Left 0
WINDOW 39 0 0 Left 0
SYMATTR InstName V1
SYMATTR Value wavefile="whitenoise.wav" chan=0
SYMBOL voltage 64 384 R0
WINDOW 123 0 0 Left 0
WINDOW 39 24 124 Left 2
SYMATTR SpiceLine Rser=8
SYMATTR InstName V2
SYMATTR Value 15
SYMBOL voltage 64 544 R0
WINDOW 123 0 0 Left 0
WINDOW 39 24 124 Left 2
SYMATTR SpiceLine Rser=8
SYMATTR InstName V3
SYMATTR Value 15
SYMBOL res 400 -96 R90
WINDOW 0 0 56 VBottom 2
WINDOW 3 32 56 VTop 2
SYMATTR InstName R1
SYMATTR Value 10K
SYMBOL res 576 -208 R90
WINDOW 0 0 56 VBottom 2
WINDOW 3 32 56 VTop 2
SYMATTR InstName R2
SYMATTR Value 10K
SYMBOL res 896 -80 R90
WINDOW 0 0 56 VBottom 2
WINDOW 3 32 56 VTop 2
SYMATTR InstName R3
SYMATTR Value 10K
SYMBOL res 896 -176 R90
WINDOW 0 0 56 VBottom 2
WINDOW 3 32 56 VTop 2
SYMATTR InstName R4
SYMATTR Value 10K
SYMBOL res 1184 -192 R90
WINDOW 0 0 56 VBottom 2
WINDOW 3 32 56 VTop 2
SYMATTR InstName R5
SYMATTR Value 10K
SYMBOL res 896 16 R90
WINDOW 0 0 56 VBottom 2
WINDOW 3 32 56 VTop 2
SYMATTR InstName R6
SYMATTR Value 10K
SYMBOL Misc\\signal -656 576 R0
WINDOW 123 0 0 Left 0
WINDOW 39 0 0 Left 0
SYMATTR InstName V4
SYMATTR Value wavefile="whitenoise.wav" chan=0
SYMBOL Opamps\\opamp2 1104 -128 R0
SYMATTR InstName U1
SYMATTR Value LF411/MC
SYMBOL Opamps\\opamp2 496 -128 R0
SYMATTR InstName U2
SYMATTR Value LF411/MC
SYMBOL poweramp 1376 -64 R0
SYMATTR InstName X1
TEXT -56 712 Left 2 !.tran .1
TEXT 416 616 Left 2 !.inc LF411.LIB
TEXT 1072 408 Left 2 !.wave "noiseCancelOutput.wave" 16 44100 Vout
