Version 4
SHEET 1 880 760
WIRE 528 80 480 80
WIRE 480 160 480 80
WIRE 480 160 320 160
WIRE 592 160 592 128
WIRE 800 160 592 160
WIRE 592 192 592 160
WIRE 480 240 480 160
WIRE 528 240 480 240
WIRE 800 288 800 160
WIRE 48 544 48 512
WIRE 48 544 -32 544
WIRE -32 576 -32 544
WIRE 48 576 48 544
FLAG 16 256 0
FLAG 16 176 Vi
FLAG 320 160 Vi
FLAG 592 32 +V
FLAG 800 160 Vout
FLAG -32 576 0
FLAG 48 432 +V
FLAG 48 656 -V
FLAG 592 288 -V
FLAG 800 368 0
SYMBOL Misc\\signal 16 160 R0
WINDOW 123 0 0 Left 0
WINDOW 39 0 0 Left 0
SYMATTR InstName V1
SYMATTR Value SINE(0 4 20K)
SYMBOL npn 528 32 R0
SYMATTR InstName Q1
SYMBOL pnp 528 288 M180
SYMATTR InstName Q2
SYMBOL voltage 48 416 R0
WINDOW 123 0 0 Left 0
WINDOW 39 0 0 Left 0
SYMATTR InstName V2
SYMATTR Value 15V
SYMBOL voltage 48 560 R0
WINDOW 123 0 0 Left 0
WINDOW 39 0 0 Left 0
SYMATTR InstName V3
SYMATTR Value 15V
SYMBOL res 784 272 R0
SYMATTR InstName R1
SYMATTR Value 8
TEXT -52 742 Left 2 !.tran .0005
